1

H    70.0     0.0     0.0
1

H    80.0     0.5     0.0 
1

H    90.0     1.0     0.0
1

H   100.0     1.5     0.0
1

H   110.0     2.0     0.0
1

H   120.0     2.25    0.0
1

H   130.0     2.0     0.0
1

H   140.0     1.5     0.0
1

H   150.0     1.0     0.0
1

H   160.0     0.5     0.0
1

H   170.0     0.00    0.0
