31

C    -4.563269275099e+00 2.928253963500e-04 -5.087424619899e-05
H    -4.706980933414e+00 1.094681554508e+00 -9.933861239584e-02
H    -5.102475168986e+00 -3.386823449709e-01 9.121562484251e-01
H    -5.024909673794e+00 -4.922467563632e-01 -8.842015045406e-01
C    -1.966469353131e+00 4.874590047174e-01 8.644243889005e-02
H    -1.883911493024e+00 1.579836300542e+00 4.426313010293e-03
C    -3.094339446163e+00 -3.147473543982e-01 9.136623145028e-02
N    -8.498575756222e-01 -3.255752534188e-01 2.123539510691e-01
H    2.063871894777e-01 -3.717168337635e-02 2.906725036619e-01
N    -2.602977879421e+00 -1.614219754503e+00 2.195940619692e-01
H    -3.175536875174e+00 -2.466103446705e+00 2.563345843155e-01
C    -1.255142919639e+00 -1.593247920520e+00 2.933481647228e-01
H    -6.012814107305e-01 -2.471434446920e+00 4.056918011910e-01
C    1.050779939200e+01 1.936478684800e-04 5.170390258499e-04
H    1.063653638767e+01 1.040957743651e+00 3.514763638703e-01
H    1.105165693060e+01 -1.059957403153e-01 -9.614854449665e-01
H    1.098930380055e+01 -6.722632513590e-01 7.412618222911e-01
N    8.573318602148e+00 -1.533901087010e+00 -6.061135687969e-01
H    9.149425081944e+00 -2.336711880043e+00 -8.650977721001e-01
C    9.044415098926e+00 -3.071741008619e-01 -1.569735426050e-01
C    7.209471380351e+00 -1.486721104836e+00 -6.410215633082e-01
H    6.587106993866e+00 -2.332995510121e+00 -9.649444564968e-01
N    6.765307144307e+00 -3.054814317148e-01 -2.406549394644e-01
C    7.895688192459e+00 4.364950196540e-01 6.271902627848e-02
H    7.826804246242e+00 1.470826116838e+00 4.228478024235e-01
O    1.676918041028e+00 1.732538801556e-01 6.061904170261e-01
H    2.574216100369e+00 1.132175012300e-01 1.343773710988e-01
H    1.865747673966e+00 6.761068662676e-01 1.419032391961e+00
O    4.044181066047e+00 1.879307574257e-01 -5.387060073162e-01
H    5.011744306863e+00 1.932497700109e-02 -3.059756423171e-01
H    4.091109524713e+00 7.841676229338e-01 -1.306516262374e+00
