1

H    -26.0    -18.0    0.0
1

H    -23.0    -16.0    0.0
1

H    -19.6    -13.6    0.0
1

H    -15.8    -11.0    0.0
1

H    -12.2    -8.6     0.0
1

H    -8.8     -6.0     0.0
1

H    -5.2     -3.7     0.0
1

H     -1.7    -1.2     0.0
1

H     1.7      1.2     0.0
1

H     5.0      3.7     0.0
1

H     8.8      6.2     0.0
1

H     12.3     8.6    0.0
1

H     15.6     11.1    0.0
1

H     19.0     13.6    0.0
1

H     22.0     16.1    0.0
1

H     26.0     18.0    0.0
