1

H    -50.0    -30.0    0.0
1

H    -45.0    -27.0    0.0
1

H    -40.0    -24.0    0.0
1

H    -35.0    -21.0    0.0
1

H    -30.0    -18.0     0.0
1

H    -25.0    -15.0     0.0
1

H    -20.0    -12.0     0.0
1

H    -15.0     -9.0     0.0
1

H    -10.0     -6.0     0.0
1

H    -5.0      -3.0     0.0
1

H     0.0       0.0     0.0
1

H      5.0      3.0    0.0
1

H     10.6      6.0    0.0
1

H     15.0      9.0    0.0
1

H     20.0     12.0    0.0
1

H     25.0     15.0    0.0
1

H     30.0     18.0    0.0
1

H     35.0     21.0    0.0
1

H     40.0     24.0    0.0
1

H     45.0     27.0    0.0
1

H     50.0     30.0    0.0
